$ -------------------------------------------------------------------- $
$                WAVEWATCH III grid pre-processor input file           $
$ -------------------------------------------------------------------- $
  'GFS Global'
  1.1 0.04 42 24 0.
  F T T T F T
  3600. 1800. 1800. 30.
$
END OF NAMELISTS
$
  'RECT' T 'NONE'
  720 361  # NCOLS NROWS
  1.   1. 2.0
  0. -90 1.0
$
     -0.1 2.50 10 -1000. 2 1 '(....)' 'UNIT' 'dummy'
      259920*1
                      10 3 1 '(....)' 'PART' 'dummy'
      0   0   F                                    
      0   0   F                                    
      0   0
$
  0.   0.   0.   0.   0
$
$ -------------------------------------------------------------------- $
$                        End of input file                             $
$ -------------------------------------------------------------------- $
