$ -------------------------------------------------------------------- $
$    WAVEWATCH III prnc input file                                     $
$ -------------------------------------------------------------------- $
   5
   0.07 0.01  245. 5  180.  20.  50.  10.  
$ -------------------------------------------------------------------- $
$    End of file                                                       $
$ -------------------------------------------------------------------- $
