$ -------------------------------------------------------------------- $
$    WAVEWATCH III prnc input file                                     $
$ -------------------------------------------------------------------- $
  'WND' 'LL' T T
   lon lat
$   U   V
$  U_GRD_L103   V_GRD_L103
   Uwind  Vwind
  'wind.nc'
$ -------------------------------------------------------------------- $
$    End of file                                                       $
$ -------------------------------------------------------------------- $
